Result_files/icj_bus_voltage_730_bus.csv
Bus_Number,Real,Imaginary,Magnitude,Angle
1,1,0,1,0
2,0.998592093253846,1.85785817814995e-05,0.998592093426672,0.00106597511885682
3,0.991953919817066,0.00011036719677886,0.991953925956927,0.00637486723898511
4,0.988491206100983,0.00016003598230537,0.988491219055836,0.00927614349993242
5,0.984988513888874,0.000208656430089533,0.984988535989388,0.0121373320246839
6,0.976612080910518,-0.00172902847933652,0.976613611475826,-0.101438363250831
7,0.974724094628172,-0.00363535438556127,0.974730873857097,-0.213690724075607
8,0.972221160351127,-0.00319821135930888,0.972226420742818,-0.188479082095482
9,0.968897785852473,-0.00361231799581882,0.968904519687635,-0.213613468296976
10,0.9658578418053,-0.00396957680532354,0.965865999047904,-0.235478459649264
11,0.965422857264147,-0.00388992904011506,0.965430693978603,-0.230857710501334
12,0.964665613915416,-0.00375199717971619,0.96467291044874,-0.222846669391509
13,0.961527761012132,-0.00427684756784235,0.961537272611999,-0.254848283309905
14,0.960341202839056,-0.00480955810895308,0.960353246321148,-0.286944969428063
15,0.959512892243056,-0.00499955900227898,0.959525917300232,-0.29853797719446
16,0.958752661368597,-0.00509662891072407,0.958766207846116,-0.30457550469428
17,0.957629572779148,-0.00560119460958488,0.957645953388949,-0.335120343851731
18,0.957337459294649,-0.00565119214257912,0.957354138728906,-0.338214800878049
19,0.998322471877772,-5.6272888535869e-05,0.998322473463752,-0.00322961678367931
20,0.996496500359599,-0.000508648981333103,0.996496630176297,-0.0292459003543191
21,0.996131000985628,-0.000652034722413394,0.99613121438589,-0.0375039350424195
22,0.995800409043231,-0.000805630668763457,0.995800734932165,-0.0463538944917526
23,0.990184095319838,-9.62331010481027e-05,0.990184099996145,-0.00556840949901498
24,0.986860022179783,-0.000719520176647543,0.986860284481023,-0.0417743764717231
25,0.985205009837529,-0.00101712707672852,0.985205534879121,-0.0591522246011675
26,0.97580437496104,-0.00172029681534385,0.975805891360694,-0.101009636197783
27,0.974753511377236,-0.00170968176074365,0.974755010735505,-0.100494584124264
28,0.970577286769112,-0.00274050204899257,0.970581155773988,-0.161778753750889
29,0.967678583998906,-0.00344167535531425,0.967684704363658,-0.203779068904081
30,0.966303393699405,-0.00343215238336628,0.966309488903514,-0.203504427865007
31,0.96414398354295,-0.00410216015488261,0.964152710269491,-0.243775877389843
32,0.96369496767644,-0.00428927839431414,0.963704513133584,-0.255014226052963
33,0.963558092494199,-0.00436800415063001,0.96356799296745,-0.259731603487406
34,0.99858138790792,8.87494472654822e-06,0.998581387947358,0.000509219260830645
35,0.991341712727652,0.00146338704742874,0.991342792829728,0.0845781425650517
36,0.985302941716971,0.00268151781009263,0.985306590607148,0.155931000899131
37,0.980453143973188,0.00364464651603142,0.980459918086985,0.212985090223513
38,0.976778162098346,0.00435399495720373,0.976787866030444,0.255394615203438
39,0.974930615451993,0.00474250443029775,0.974942150229373,0.27871044424128
40,0.974313857535284,0.00489425637035179,0.974326150080508,0.287810619844647
41,0.990426107089471,0.00174253966273916,0.990427639986325,0.100805163129797
42,0.984391269708032,0.00295961169034508,0.984395718793387,0.172261531704989
43,0.979541103490856,0.0039224053999687,0.979548956761328,0.22942995753141
44,0.974920624124549,0.00486182489774831,0.974932746749608,0.285725556848453
45,0.973990253496092,0.00502457439413117,0.974003213677051,0.295572108470623
46,0.974318351822024,0.0049461224864717,0.974330906224799,0.290859254087253
47,0.990430065742208,0.00174187389275025,0.99043159746182,0.10076624595068
48,0.984408842581742,0.00298808421857927,0.984413377601312,0.173915634786568
49,0.97958120305129,0.00394740390532415,0.97958915641661,0.230882706720007
50,0.975848972142633,0.00463438223669347,0.975859976600408,0.272100042306468
51,0.973997379674244,0.00502340081793015,0.974010333707025,0.295500911732457
52,0.973375743447372,0.00517591177237942,0.97338950476898,0.304666627055527
53,0.991944796317206,0.000102680074144251,0.991944801631614,0.00593090955200875
54,0.986014409856947,0.00151919530874284,0.986015580201413,0.0882780309291151
55,0.981218477911162,0.00266309392395954,0.981222091813849,0.155504274606753
56,0.977613536063818,0.00349116288617551,0.977619769702669,0.204608509690262
57,0.975181255575697,0.004044869232858,0.975189644219679,0.237650801176793
58,0.973932428120951,0.00432368859832172,0.973942025394052,0.254357976007139
59,0.985169687131754,0.0018184637516097,0.98517136542517,0.105758613157077
60,0.980329777261939,0.00300098741240915,0.980334370565417,0.175393403323079
61,0.976712341325316,0.00379930725220109,0.976719730748169,0.222873371695509
62,0.97426658114665,0.00435512035740332,0.974276315124467,0.256119175737994
63,0.972985926710196,0.00463909535294663,0.972996986008586,0.273178227022985
64,0.985140813748281,0.00182328681952131,0.985142501005541,0.106042221438978
65,0.980307929137997,0.00300463400162057,0.98031253371377,0.175610441457343
66,0.976737361387776,0.00379515316916591,0.976744734471772,0.22262398625426
67,0.974301886474734,0.00434927966346889,0.974311594009748,0.25576642810372
68,0.972983996526186,0.00463942467638271,0.972995057416736,0.273198161256581
69,0.988483993363877,0.00015409090054666,0.98848400537419,0.00893161472563104
70,0.986163176500938,0.000732330872711768,0.986163448417618,0.0425481923279201
71,0.984985185713668,0.00101660443009382,0.984985710332874,0.0591350239996043
72,0.984995562247685,0.00102388651082243,0.984996094404044,0.0595579887763072
73,0.986170749755361,0.000735812553285971,0.986171024261595,0.0427501484940967
74,0.985314186532037,0.00106443104162959,0.985314761482204,0.0618963812526183
75,0.984107959149204,0.00132200560908603,0.98410884710973,0.0769684825996337
76,0.984084633629393,0.00133496245219007,0.98408553910229,0.0777246842260275
77,0.985297227453316,0.00104060179112341,0.985297776958458,0.0605117592500979
78,0.985284236521021,0.00103807128565422,0.985284783364082,0.060365404509851
79,0.98406107181901,0.00132991260177591,0.984061970476,0.0774325242558239
80,0.984144643253067,0.00135629801395856,0.984145577843039,0.0789620746263729
81,0.985323698355281,0.00106761198397592,0.985324276741356,0.0620807527554171
82,0.984981260690081,0.000202545080871447,0.984981281515101,0.0117819278342075
83,0.980266562662952,0.00132865491164427,0.980267463093065,0.0776587462518645
84,0.976719822140792,0.00217857177397572,0.976722251787946,0.127797919304021
85,0.974332566122199,0.00275317107798674,0.97433645593155,0.161900226565678
86,0.973196468447954,0.00306003680933154,0.973201279296757,0.180155417958681
87,0.979381115810094,0.0016358326051621,0.979382481951631,0.0956994326246976
88,0.975833358226594,0.00248567265146156,0.975836524012256,0.145945250752416
89,0.973323245681312,0.00305978406447661,0.973328055108926,0.180117074555829
90,0.972308991719425,0.00336702239524383,0.972314821556401,0.198409562480992
91,0.979382234731554,0.00163570749097117,0.979383600662564,0.0956920038856497
92,0.975849529243389,0.00248299715840045,0.975852688165295,0.145785745075339
93,0.973441574806888,0.00306085676339204,0.973446387022233,0.180158317459963
94,0.972241733026753,0.00341010679909809,0.972247713428653,0.200962290978373
95,0.976604616114668,-0.0017352783346293,0.976606157776704,-0.10180580613767
96,0.971768729456525,-0.000564238328256339,0.971768893263434,-0.0332676595116452
97,0.969278282652928,0.000123799822046399,0.969278290559014,0.00731802970942853
98,0.966856878369227,0.000709037347465802,0.966857138352842,0.0420174290044875
99,0.965648013105213,0.000971071358384769,0.965648501367671,0.0576175489737486
100,0.970819490043637,-0.000274830245995902,0.970819528944618,-0.0162199182432487
101,0.970064165773508,-4.62327166953332e-05,0.970064166875221,-0.00273068486964343
102,0.965976954994125,0.00105016546729029,0.965977525839618,0.0622892969133418
103,0.964737874638741,0.00128519512430121,0.964738730687736,0.0763276894676335
104,0.970857181392268,-0.000249419743676946,0.970857213431073,-0.0147196710282656
105,0.96840150480316,0.000464418509171715,0.968401616164273,0.0274774650094727
106,0.965905261368582,0.00106221269312609,0.965905845429726,0.0630085394101955
107,0.96472260809288,0.00125568391165247,0.964723425292252,0.0745762018092518
108,0.974713080251731,-0.00364496075619224,0.974719895432904,-0.214257814511293
109,0.96741955577317,-0.00203387545758361,0.967421693751869,-0.120456845626004
110,0.96133675771246,-0.000688348054396242,0.961337004152107,-0.0410256149016591
111,0.958663556943361,-2.7660858200197e-05,0.958663557342418,-0.00165318731546916
112,0.957242465231345,0.00038600659036201,0.957242543059632,0.0231044360196113
113,0.957044955237511,0.000513855948498637,0.9570450931871,0.0307632093313482
114,0.958025049351713,0.000338560244682086,0.95802510917428,0.0202479802973862
115,0.966505320842396,-0.00171641003783681,0.966506844921483,-0.101751067042012
116,0.960391576972119,-0.000398145989385688,0.960391659501072,-0.0237528983614303
117,0.957720887456055,0.000261790685443651,0.95772092323598,0.0156616621968207
118,0.956332257070795,0.000734468172694505,0.956332539108451,0.0440034495304204
119,0.956166782147171,0.000856842046998512,0.95616716606458,0.0513439922592644
120,0.957085735730679,0.000627150549017515,0.957085941207448,0.0375442586735465
121,0.966495916337404,-0.0017468379753637,0.966497494947498,-0.103555879343911
122,0.960407901611218,-0.000400927978548975,0.960407985296097,-0.023918461818797
123,0.957701151078241,0.000265172331469923,0.957701187789257,0.0158642965308146
124,0.956298052770576,0.000675548645649963,0.956298291381286,0.0404749122942209
125,0.956142651685868,0.00082848214647169,0.956143010618992,0.04964585402751
126,0.957146727219943,0.000649135660739799,0.957146947341397,0.0388579169021937
127,0.974713079809535,-0.00364532914987441,0.974719896368387,-0.214279469296866
128,0.967267976055142,-0.00214592086325767,0.967270356455816,-0.127112661597478
129,0.961029385436219,-0.000911993463048542,0.961029818165905,-0.0543722819326869
130,0.956021384977631,7.56375226148935e-05,0.956021387969737,0.00453306890171482
131,0.95226653124453,0.000815864812262346,0.952266880745036,0.0490887765393496
132,0.949754284334393,0.00130969879892698,0.949755187362764,0.0790100842755293
133,0.948729892174975,0.00153117953895383,0.948731127779161,0.0924710497800154
134,0.966354768278611,-0.00182843041457865,0.966356498054724,-0.108408655198337
135,0.960095802992759,-0.000623530111020445,0.960096005467219,-0.0372104936055861
136,0.955065338270135,0.000367607410146975,0.95506540901671,0.0220533101087877
137,0.951326235228602,0.00110493709778245,0.951326876904156,0.0665473120767034
138,0.948455735509795,0.00167514253512521,0.948457214809366,0.101194493273802
139,0.947784172810243,0.00182086584917743,0.947785921915934,0.110075482218987
140,0.966349839640518,-0.00185969669759366,0.966351629090086,-0.110263008318103
141,0.96009119220924,-0.000622710999599125,0.960091394153051,-0.037161789858983
142,0.955070805886543,0.000366712568632275,0.955070876288707,0.0219995013092099
143,0.951316407556176,0.00110659593122988,0.951317051166509,0.0666479074526245
144,0.948785711866548,0.00160329055981545,0.948787066513204,0.0968202765108054
145,0.948120082506252,0.00174798168457464,0.94812169381975,0.105632041309231
146,0.972210266350039,-0.00320778732960237,0.972215558349055,-0.189045533636841
147,0.968058663490923,-0.00226014812279547,0.968061301896408,-0.133769489497191
148,0.965120673506978,-0.0015581830594669,0.965121931345988,-0.0925037022800338
149,0.96336218355525,-0.00111954903999931,0.963362834084018,-0.0665849326119646
150,0.962808766956869,-0.000945784870727579,0.962809231487748,-0.0562826864998973
151,0.96347234411925,-0.00103757839742381,0.963472902811269,-0.0617026949110908
152,0.965342544579766,-0.00141452146889408,0.965343580932055,-0.0839557446713465
153,0.967138507147514,-0.00197356852095255,0.967140520803585,-0.116919126927716
154,0.964251505383355,-0.00124846726588473,0.964252313611215,-0.0741838253033079
155,0.9624605893152,-0.000804416022961825,0.962460925477029,-0.0478872931194872
156,0.961893746131889,-0.000628439320258004,0.961893951422722,-0.0374333607558005
157,0.962591724483279,-0.000693990383748927,0.962591974652992,-0.0413079731632711
158,0.969117392687895,-0.00258459630682461,0.969120839187896,-0.152805129851415
159,0.96713330787022,-0.00197264175149567,0.967135319646363,-0.116864851199908
160,0.964200102376377,-0.00127180893363062,0.964200941153129,-0.0755748125355014
161,0.96243457245752,-0.000832144087130567,0.962434932203352,-0.0495392971353547
162,0.961876181577881,-0.000657632545722965,0.961876406388789,-0.039172987325198
163,0.962524570092443,-0.000746892098968008,0.962524859876071,-0.0444599107005184
164,0.964411926463049,-0.00112656936875113,0.964412584458909,-0.066929533975501
165,0.972210180947473,-0.00320790388524452,0.972215473331533,-0.189052419204034
166,0.964891857082482,-0.0016373563069609,0.96489324632301,-0.0972269744133641
167,0.960758217637325,-0.000614278929046539,0.960758414012728,-0.0366331347847717
168,0.957870682598312,0.000161742162144589,0.957870696253875,0.00967473307251839
169,0.954176844686697,0.000937658327648,0.954177305399474,0.0563038684132934
170,0.951711682984393,0.00144806325459722,0.951712784623689,0.0871775038746889
171,0.950506659257227,0.00171174197000602,0.950508200571098,0.10318232230921
172,0.964005523805967,-0.00132461568148214,0.964006433866041,-0.0787286362851353
173,0.959807831761029,-0.00032315671870421,0.95980788616268,-0.0192908567639415
174,0.956953933861226,0.000479061716968571,0.956954053773014,0.0286828981463023
175,0.953260810403031,0.00125472537935455,0.953261636166075,0.0754152760542081
176,0.950758173267793,0.00173874255948154,0.950759763169013,0.104782164441955
177,0.94957018091729,0.0019994152014527,0.949572285899521,0.120641828840515
178,0.960919889432542,-0.000594569130891647,0.960920073377334,-0.0354517560267446
179,0.959812857940646,-0.000324012845539335,0.959812912630641,-0.0193418620084499
180,0.956990270057105,0.000472934466506187,0.956990386916703,0.0283149657410224
181,0.953227124814415,0.00122787038125913,0.953227915635935,0.0738037660631624
182,0.950747603472432,0.00174048682424756,0.950749196582862,0.10488844522358
183,0.949613820343262,0.0020247488959489,0.949615978906746,0.122164808500148
184,0.968890377813349,-0.00361851367285914,0.968897134819015,-0.213981480667902
185,0.964093996371342,-0.00245435630622032,0.964097120472903,-0.145861248495292
186,0.960535825284096,-0.00155886401821143,0.960537090231932,-0.0929858609251392
187,0.958644485434464,-0.0010438491190365,0.958645053747679,-0.0623882223708493
188,0.957476473911345,-0.000739921621153928,0.957476759810759,-0.0442772003057135
189,0.963159256008241,-0.00216450118714027,0.963161688139503,-0.128760195394609
190,0.959636430794862,-0.00124319482166101,0.959637236064789,-0.0742257945405744
191,0.95842506530481,-0.000944080377218349,0.95842553027989,-0.0564382189061565
192,0.956587912884916,-0.000426459389466081,0.956588007945495,-0.025543205388906
193,0.963148678418939,-0.00213052168056194,0.963151034813741,-0.126740246955101
194,0.958907342835141,-0.00101919802546766,0.958907884474711,-0.0608981918782639
195,0.957774219650249,-0.000701047384389771,0.957774476217695,-0.0419379101742986
196,0.956599577854999,-0.000396078958642879,0.956599659853015,-0.0237232504724917
197,0.965850209124675,-0.00397596193068108,0.965858392695043,-0.235859089951318
198,0.960907735995412,-0.00277698009244753,0.960911748660751,-0.165581762097968
199,0.957138113990147,-0.00190443255146209,0.957140008627765,-0.114002150761771
200,0.955067217023178,-0.00137026206535999,0.955068199999626,-0.0822038259747813
201,0.95379485478353,-0.0010579668563248,0.953795441541531,-0.0635535100318177
202,0.960021309246376,-0.00243017143179195,0.960024385075876,-0.145036644279232
203,0.955518025544975,-0.00140470657358617,0.955519058073635,-0.0842304362543476
204,0.954108472207837,-0.00104372368741843,0.9541090430857,-0.0626772952497461
205,0.952838201982341,-0.000731899834269801,0.95283848307796,-0.0440103715356137
206,0.960024762475631,-0.00243076769807292,0.960027839803614,-0.145071708457857
207,0.956174119308675,-0.00160913546031038,0.956175473306364,-0.096422379189859
208,0.954821207311578,-0.00122554324881524,0.954821993823034,-0.0735409065798449
209,0.952825342456055,-0.000697175064411949,0.95282559751487,-0.0419228791092688
210,0.965417310198367,-0.00389441460702369,0.965425165041694,-0.231125242936987
211,0.961889010313375,-0.00297603799018283,0.961893614161027,-0.177269799943452
212,0.960420845162117,-0.00254149320792747,0.960424207842369,-0.151617382437192
213,0.960128307420926,-0.00243338634534729,0.960131391050245,-0.145212330388469
214,0.960995542986736,-0.00266028219433714,0.960999225151469,-0.15860901105324
215,0.959516920993367,-0.0021918001894203,0.959519424326918,-0.130879069685526
216,0.960567546619825,-0.00253169271113264,0.960570882906209,-0.151009652583114
217,0.96098174437877,-0.00265789674784911,0.960985419995739,-0.158469064172919
218,0.959551058719384,-0.00219771840297476,0.959553575500435,-0.131227794210006
219,0.959251971723124,-0.00212078510548841,0.959254316114431,-0.126673534586413
220,0.964658227761387,-0.00375821524043381,0.964665548555319,-0.223217691158967
221,0.959859288973599,-0.00260985207773101,0.959862837053696,-0.15578652249332
222,0.956914314318393,-0.00181953366480432,0.956916044201474,-0.10894546405399
223,0.954512325580027,-0.0012252070529566,0.954513111914401,-0.0735445239721688
224,0.953296933903533,-0.00093739144016327,0.953297394779084,-0.0563397972368358
225,0.957995995434136,-0.00205434886517658,0.957998198128316,-0.12286621213309
226,0.956015105978975,-0.00147062644738512,0.956016237101724,-0.0881373334853758
227,0.953597866973989,-0.000906300553498036,0.953598297648457,-0.054453960992977
228,0.952322435974198,-0.000575776821848036,0.952322610032324,-0.0346411851358738
229,0.958900565013141,-0.00231515553718286,0.958903359847947,-0.138333825518535
230,0.957001477116562,-0.00177793183078722,0.957003128649471,-0.106444844029813
231,0.95363287742852,-0.000879847683344215,0.95363328331416,-0.0528626327374529
232,0.952429845765559,-0.000659200559534825,0.952430073890144,-0.0396558382236204
233,0.961520190893692,-0.00428295164722465,0.961529729738532,-0.255214016933357
234,0.959414664824035,-0.0037359719348659,0.959421938755683,-0.223109308387978
235,0.958521072174971,-0.00349928015540916,0.958527459578004,-0.209169208023147
236,0.958817776227589,-0.00357133273674625,0.958824427321048,-0.213410047093943
237,0.957631623425244,-0.00326302466055292,0.957637182608322,-0.195228325155162
238,0.958477535442127,-0.0033791058377629,0.9584834919306,-0.201995032488654
239,0.957608788149394,-0.00317910278942058,0.957614065182575,-0.190211812544904
240,0.957926245808061,-0.00322242725913061,0.957931665853764,-0.192740084222701
241,0.956753993476534,-0.00291658854747597,0.956758438960457,-0.174661091409764
242,0.958519144491566,-0.00341868619369908,0.958525241071999,-0.204352162331002
243,0.957634059085951,-0.00315113627215806,0.957639243546984,-0.188533559058837
244,0.957868145784533,-0.00321231369699277,0.957873532188873,-0.192146829532706
245,0.956716321678161,-0.00294247466417498,0.956720846601839,-0.176218220781574
246,0.960329942381561,-0.00481900896675833,0.960342033382895,-0.287512182539133
247,0.953025624145491,-0.00305954637571545,0.953030535241095,-0.1839389077105
248,0.9469244137386,-0.00161040272798923,0.94692578311668,-0.0974409248888245
249,0.943594847232449,-0.000730013738011398,0.943595129620584,-0.044326967185503
250,0.941471744375108,-0.000159487040912293,0.941471757883807,-0.009706010083138
251,0.940584552173954,0.0001202824203308,0.940584559864842,0.00732701274019157
252,0.939386824479605,0.000408248094893994,0.939386913189866,0.0249001697166018
253,0.952113738477981,-0.00273899729726157,0.952117678180965,-0.164825425765771
254,0.943619281336074,-0.000574184775446644,0.943619456029476,-0.0348640186610388
255,0.942686033597204,-0.000410655171631115,0.942686123042499,-0.024959324571268
256,0.940560902364451,0.000159970969089669,0.940560915968413,0.00974488867444423
257,0.939598618275462,0.000452339078365045,0.939598727157396,0.0275831802993879
258,0.93846447946063,0.000696448691662069,0.938464737883152,0.0425200572078676
259,0.952118568922807,-0.00270729919171469,0.952122417946625,-0.162917103583124
260,0.946015993250242,-0.0013235960289209,0.946016919188917,-0.0801639901374887
261,0.942679437024709,-0.000376751177817703,0.942679512310876,-0.0228988247949462
262,0.940509605297777,0.00016868347076242,0.940509620424743,0.010276185155614
263,0.94205138549531,-0.000273784085502711,0.942051425279618,-0.0166516098771597
264,0.938495036081221,0.000757281743061062,0.938495341610565,0.0462325709722947
265,0.959505590566546,-0.00500564301867788,0.959518647442814,-0.298903539186454
266,0.956582925193402,-0.00422513734976742,0.956592256166225,-0.253068455833464
267,0.954838297693986,-0.00369227170734196,0.954845436504522,-0.221556395176733
268,0.954271618765216,-0.00346837181835864,0.954277921773241,-0.208244893823037
269,0.954913248602799,-0.00355539739533794,0.954919867427519,-0.213326523879561
270,0.955693620483736,-0.00394037989155331,0.955701743655938,-0.236232463334491
271,0.953930986533866,-0.00337215809846782,0.953936946826002,-0.202540461333639
272,0.953343778489307,-0.0031448252388329,0.953348965442378,-0.189002712339009
273,0.954032177985126,-0.00320754824294233,0.954037570013243,-0.192633213732536
274,0.955682270880895,-0.00393840233143689,0.95569038599799,-0.236116710628469
275,0.953965521079838,-0.00334568014721394,0.953971387927737,-0.200942866242259
276,0.953372538917801,-0.0031173518923674,0.953377635486272,-0.18734593545671
277,0.956776832373937,-0.00414020798958939,0.956785790179653,-0.247931341426659
278,0.958744976469922,-0.00510297660642445,0.958758556820515,-0.304957281370841
279,0.953802033198739,-0.00387116527869101,0.953809889052668,-0.232543239228853
280,0.950058834892275,-0.0029503098015806,0.950063415822751,-0.177925566609218
281,0.947520562722212,-0.00234051716064406,0.947523453431099,-0.141528836114994
282,0.946250748848164,-0.00204598721365548,0.946252960766512,-0.123884974189559
283,0.952895418726187,-0.00352914461247818,0.952901953975881,-0.212199747311156
284,0.949157916391743,-0.00263118575330634,0.949161563374531,-0.158830738286322
285,0.946563323466588,-0.002011929571136,0.946565461652131,-0.121782554478979
286,0.945289032407914,-0.00171669022944961,0.945290591202533,-0.104051769751353
287,0.952895030047057,-0.00353993250532691,0.952901605314276,-0.212848480574869
288,0.949138107511497,-0.00259519181158624,0.949141655471429,-0.156661255197935
289,0.946558169845292,-0.00197825820782948,0.946560237072319,-0.11974507714348
290,0.945287437941793,-0.00171641616090569,0.94528899624136,-0.10403533346774
291,0.957621849494856,-0.00560732970008177,0.95763826614036,-0.335490104550699
292,0.952754651541801,-0.00429518349139941,0.952764333209301,-0.258297578213091
293,0.949758306035683,-0.00341730877954408,0.949764453895314,-0.206154054330792
294,0.947317760899318,-0.00275092680975476,0.947321755114708,-0.166381397469711
295,0.946115668940173,-0.00241904950211557,0.946118761474797,-0.14649479913266
296,0.951824451771323,-0.00397007553097483,0.951832731360663,-0.23898025811849
297,0.948849950647968,-0.00306375775114831,0.948854896944844,-0.185002674468624
298,0.946397258408889,-0.00239544695935137,0.946400289988331,-0.145022300625962
299,0.945206524321475,-0.00206565092460999,0.945208781451815,-0.125213790284116
300,0.950848706870074,-0.00364904740393958,0.95085570877155,-0.219881446529198
301,0.949837177561624,-0.00335424766559882,0.949843100125297,-0.202333031738249
302,0.946368277016809,-0.00239044304420104,0.94637129603645,-0.144723792674291
303,0.945210872081675,-0.0020663345613414,0.945213130695887,-0.125254654090954
304,0.957327953608495,-0.00565910679260378,0.957344679961151,-0.338691831875061
305,0.951187979268359,-0.00415456962885325,0.95119705232587,-0.250253153853559
306,0.946272090388636,-0.00294310029976255,0.946276667200377,-0.178201052154533
307,0.942565957719295,-0.00204394390987769,0.942568173851631,-0.124245072799458
308,0.940108902608976,-0.00145952980635425,0.940110035576639,-0.0889522804845996
309,0.938965471801111,-0.0011701156283804,0.938966200885456,-0.0714005513059101
310,0.950238556188164,-0.00382604950824319,0.950246258777905,-0.230695021761053
311,0.945358192690254,-0.00258837593297122,0.945361736150006,-0.156874555394416
312,0.941597642021434,-0.00167997835550549,0.941599140710951,-0.102225794767998
313,0.939165330052919,-0.00109995452464143,0.939165974188463,-0.0671050358068794
314,0.938010956369448,-0.000874756563337063,0.938011364253212,-0.0534320460873868
315,0.950283149668036,-0.0038337513198112,0.950290882936475,-0.231148556844053
316,0.945357040256133,-0.00262087641137828,0.945360673264443,-0.15884450623487
317,0.941644653035952,-0.00172094812521934,0.941646225635534,-0.104713550102434
318,0.939059493467714,-0.00115255554327532,0.939060200762507,-0.0703219929988761
319,0.938041612130728,-0.000846954219726789,0.938041994486529,-0.0517321283159223
320,0.998313380602448,-6.38780750534334e-05,0.998313382646099,-0.00366612746067586
321,0.992426462384256,0.00136426892734543,0.992427400100499,0.0787633193813813
322,0.989107410261993,0.00226569693426106,0.989110005215691,0.131244234542787
323,0.986930247896242,0.00285587830510461,0.986934379912581,0.16579623263059
324,0.98593471318419,0.00315230123862731,0.985939752553213,0.183189554919063
325,0.986115581639006,0.00319526383561003,0.986120758356812,0.185652163810748
326,0.98940180957394,0.00228552009543574,0.989404449348341,0.132353126173905
327,0.98824294911648,0.00259839350046505,0.988246365096892,0.150647812008874
328,0.98606235398253,0.00315765372735174,0.986067409824821,0.183476848690556
329,0.98506850958344,0.00345364336434143,0.98507456378968,0.200877782636276
330,0.985205809222489,0.00353525716490345,0.985212152061149,0.205596073197381
331,0.991547318052674,0.00166843390367592,0.991548721752563,0.0964090458590848
332,0.988248137782558,0.00259752513798221,0.988251551462246,0.150596676249368
333,0.986009927671492,0.00319777842346206,0.986015113095933,0.185818174824158
334,0.985014419850305,0.00343123053126541,0.985020396060909,0.19958513179207
335,0.987313025271854,0.00289327873099301,0.987317264577742,0.167902358696204
336,0.996487395459794,-0.000516256841465348,0.99648752919009,-0.0296836022704257
337,0.990595241207885,0.000916679299662663,0.990595665347192,0.0530204849173194
338,0.985852467934593,0.0020762324186177,0.985854654233465,0.120666309482588
339,0.982289093003827,0.00296088073953933,0.98229355543495,0.172704204330931
340,0.979927720944519,0.00356953947585999,0.979934222224935,0.208707885104218
341,0.978781023581317,0.00388170689112022,0.978788720700887,0.227225754097046
342,0.989696675516209,0.00125613753145382,0.989697472669974,0.0727206043775101
343,0.984934347099234,0.00238734924412213,0.984937240402762,0.138877041337018
344,0.981368583181071,0.0032720835633422,0.98137403806381,0.191035138978955
345,0.97899473723533,0.00388251736536302,0.979002435888474,0.22722358379544
346,0.97791035765477,0.00421590110771713,0.977919445266649,0.247008165881632
347,0.989752431852411,0.00118413999578219,0.989753140204815,0.0685486486887561
348,0.984982844198247,0.00237916135402731,0.984985717548035,0.138393922357718
349,0.981386930047263,0.003268995520657,0.981392374536967,0.190851282120395
350,0.979021608703997,0.00390972538246506,0.979029415422197,0.228809630598861
351,0.977920636750469,0.00421423020617699,0.97792971706492,0.246907674274131
352,0.996121699330767,-0.000659871929844767,0.996121917893878,-0.0379550722509839
353,0.990075519082528,0.000784310462729848,0.990075829737015,0.0453881235079918
354,0.985229184196957,0.0019317297458767,0.985231077957457,0.112339160821611
355,0.981569823439667,0.00278354863087548,0.981573770243663,0.162479690484749
356,0.979094149992691,0.00338019853237609,0.979099984828939,0.197805635321931
357,0.977858667586456,0.00365830017708068,0.977865510657853,0.214350181075275
358,0.989180184231686,0.00112344883661612,0.989180822202857,0.0650729262339085
359,0.984316767299737,0.00224206763417926,0.984319320776892,0.13050757126527
360,0.980707148063914,0.00305380705491519,0.980711902650919,0.178411761883519
361,0.978151045802223,0.00372681156869484,0.978158145459338,0.218299148797753
362,0.976928812149759,0.00397105949336714,0.976936882977523,0.232896904280161
363,0.989154828139579,0.00109640447224255,0.98915543578075,0.063508079205527
364,0.984345377258839,0.00226877608659687,0.984347991858457,0.132058388487261
365,0.980634962210129,0.00309737081425672,0.980639853776514,0.180970179456253
366,0.978162036874624,0.00372504884877943,0.978169129737613,0.218193446203624
367,0.976914198333326,0.00397345135157049,0.976922279007337,0.23304066776507
368,0.995791209569073,-0.00081340260306198,0.995791541779118,-0.0468015035554372
369,0.989802888807771,0.000608593279901966,0.989803075908531,0.0352290565914111
370,0.984980826410623,0.00173573817811638,0.98498235577272,0.10096680700375
371,0.981348454457615,0.00258672633537674,0.981351863614414,0.151025008348429
372,0.978925110223773,0.00314065878674864,0.97893014825586,0.183819859250296
373,0.977716819811075,0.00341734920401438,0.977722792010632,0.200261348901194
374,0.988877690428639,0.000952969802990591,0.98887814961143,0.0552152519372862
375,0.984042051519082,0.00201931131595226,0.984044123388821,0.117574094877016
376,0.980446975722709,0.00292680249772997,0.98045134421687,0.171037227533887
377,0.978018141247349,0.00344989778612863,0.978024225877689,0.202106438246764
378,0.976825415955089,0.0037239545396783,0.976832514350974,0.218427818399562
379,0.988963911905532,0.000907149662394009,0.988964327957284,0.0525558433820372
380,0.984116073816548,0.00206978819717852,0.984118250398435,0.120504030450898
381,0.980419695450038,0.00289979415675161,0.980423983811339,0.169463631676143
382,0.977989339642695,0.00345475341169829,0.977995441592593,0.202396854834407
383,0.976775898804283,0.00373214757631794,0.976783028830071,0.21891947201403
384,0.990175079112976,-0.000103903299438202,0.990175084564484,-0.00601229079485149
385,0.98428422842912,0.00127364316386519,0.984285052462556,0.0741394965585096
386,0.97956728041185,0.0023753534136294,0.97957016040573,0.138936305261874
387,0.975989111339201,0.003203881585896,0.975994370019571,0.188084304850761
388,0.973607016906354,0.00375585393417193,0.973614261300678,0.221027075285648
389,0.972444669500867,0.00400989594768136,0.972452936910657,0.236259006942125
390,0.983371692595042,0.00161627181140147,0.983373020848043,0.094171380615958
391,0.978697306327725,0.00267908584272224,0.978700973185425,0.156841065505738
392,0.975068442728364,0.00351586643426266,0.975074781399612,0.206594148847532
393,0.972674100506802,0.00406963328728112,0.972682614068849,0.23972207218592
394,0.971568826905652,0.00431422369250631,0.971578405452125,0.254418604190368
395,0.983417701200841,0.00154563435674748,0.983418915834301,0.0900515134964448
396,0.978712310416757,0.0026765452666258,0.978715970267099,0.156689931774049
397,0.975096402404299,0.00351115273014693,0.975102723909282,0.206311255689511
398,0.972693189405016,0.00409827783245728,0.97270182306609,0.241404623944574
399,0.971555933298771,0.00428451213892787,0.971565380492901,0.25266982895454
400,0.986849206442619,-0.000728701720517108,0.986849475483786,-0.0423079080862598
401,0.979790641826393,0.000929719169759563,0.979791082929576,0.0543677049951081
402,0.973868031499256,0.00229344092676926,0.97387073200067,0.134930235408437
403,0.96909534173267,0.00336185631564643,0.969101172966913,0.198762079679601
404,0.965522853852999,0.0041724720284885,0.965531869404252,0.247600093822413
405,0.963155640203925,0.00472533794381067,0.963167231624558,0.28109657198414
406,0.961979231966054,0.00500128855049102,0.961992232619975,0.297875603579651
407,0.978921977251075,0.00126620915182356,0.978922796154411,0.0741105027843958
408,0.972994431983774,0.00263057630791884,0.972997987974867,0.154903818513336
409,0.968200361783111,0.00367048800602453,0.968207319244772,0.217209652376402
410,0.964640034046584,0.00447890987169828,0.964650431979913,0.266027512149856
411,0.962282500920792,0.00502996520025915,0.962295646944477,0.299489133461804
412,0.961082426135943,0.00530976338824652,0.961097093645897,0.316543023597908
413,0.978942163237107,0.00123111682074944,0.978942937362528,0.0720550849468056
414,0.97300289735831,0.00259735252725765,0.973006364063369,0.152946085406598
415,0.968167558677975,0.00364401085693037,0.968174416358744,0.215650126699973
416,0.964575026404531,0.00445754797445304,0.964585326084348,0.264776570869718
417,0.962223641072862,0.00503968854082641,0.962236838777286,0.300086415282674
418,0.961093102258261,0.00530800875179169,0.961107759913173,0.316434907558934
419,0.986849129344096,-0.000729093598218565,0.986849398674729,-0.0423306635281383
420,0.979606055669883,0.000842032798977377,0.979606417559798,0.0492493012184542
421,0.973593108052336,0.00215215643570138,0.97359548675224,0.126653813333471
422,0.968728232852476,0.00318700640635508,0.968733475283742,0.188495959329068
423,0.965048475438506,0.00396474104527849,0.965056619643501,0.235388849888795
424,0.962599074625298,0.00448281520444235,0.962609512783681,0.266823999269716
425,0.961364801802761,0.00474238740029755,0.961376498768051,0.28263628786201
426,0.978664630606501,0.00112766504257199,0.978665280281572,0.0660189579037525
427,0.972733664314103,0.00245529249343738,0.972736763030559,0.144620880047305
428,0.967869027123237,0.00348988629770032,0.967875318918119,0.20659292081397
429,0.964103370853613,0.00424964162452596,0.96411273674049,0.252550670376816
430,0.961704894938388,0.00479126745177625,0.961716830045232,0.285448409083467
431,0.960446765176517,0.00505471221001596,0.960460066246151,0.301537797761237
432,0.978678759742326,0.00115690963296604,0.978679443541488,0.0677300980646399
433,0.972713508703553,0.0024586672237815,0.972716616008431,0.144822657322998
434,0.967787989598479,0.00347145620894833,0.967794215636401,0.205519120539374
435,0.964124288035056,0.00427830177899476,0.964133780470955,0.254248367668725
436,0.961647425503434,0.00476860855690792,0.961659248697246,0.284115464546559
437,0.960407451340125,0.00502900840850009,0.960420618018588,0.300016751285374
438,0.98684911452673,-0.000728930440905956,0.986849383736839,-0.042321191367763
439,0.979668614874537,0.000897828202299728,0.979669026286774,0.0525093399304115
440,0.973671448123028,0.00224674515262778,0.97367404029982,0.13220967571897
441,0.968876176069668,0.0033371956792294,0.968881923368572,0.197348718447062
442,0.965311816120764,0.004167824197599,0.965320813564542,0.24737835841111
443,0.962933831471427,0.00472149402891027,0.962945406706999,0.280932608352601
444,0.961764283737102,0.00499707454401462,0.961777265392741,0.29769113885548
445,0.978771248172336,0.00120758856449041,0.978771993121469,0.0706903611600897
446,0.972723451577931,0.0025327824131282,0.972726749008393,0.149186713352729
447,0.967954294336832,0.00365038853294839,0.967961177559077,0.21607514550632
448,0.964378742569649,0.00448260521145574,0.96438916048953,0.266319132559016
449,0.96202483162231,0.00503209770876223,0.962037992319058,0.29969635071616
450,0.960899312842562,0.00530035601733719,0.960913931210917,0.316042425711583
451,0.978772593481472,0.00120729828023004,0.978773338071478,0.0706732712476111
452,0.972794158871158,0.00255279811571653,0.972797508380887,0.150354749668872
453,0.96792792884666,0.00362280310237925,0.967934708616084,0.214448154986182
454,0.964446637212297,0.00447138527575673,0.964457002316015,0.265633845819323
455,0.96201050098331,0.00503448935402591,0.962023674389157,0.299843253676557
456,0.960856913366023,0.00530732465216969,0.960871570845056,0.316471897525214
457,0.986849121207654,-0.000728742110425588,0.98684939027867,-0.0423102567493845
458,0.979748071855881,0.000952454493794232,0.979748534816398,0.0556996303939175
459,0.973829571548154,0.0023359231555557,0.973832373131357,0.137435014606363
460,0.969101661079119,0.00344164781498463,0.969107772358673,0.203478203867191
461,0.965569203683498,0.00426971463415404,0.965578643904805,0.253358363982124
462,0.963232748898108,0.00482046739148579,0.963244810759798,0.286732496838732
463,0.962061705585279,0.00509595617372538,0.962075201906265,0.303487862574621
464,0.978866473173763,0.00125948906087522,0.978867283453859,0.0737213600479871
465,0.972933387197758,0.00264499369895089,0.972936982499776,0.155762567551307
466,0.968191491284168,0.00375275464780485,0.968198764181461,0.222079958382941
467,0.96464709764416,0.00458247476001407,0.964657981912879,0.272176725719589
468,0.962350441309251,0.00512656389475136,0.962364096143179,0.305219058971976
469,0.961174465844745,0.00540278528592645,0.961189650319216,0.322057592369666
470,0.978840655605578,0.00129540538227038,0.978841512780012,0.0758256386338736
471,0.972921083705834,0.00264708300452046,0.972924684735549,0.155887576580197
472,0.968199593369839,0.00375140936870819,0.968206860992925,0.221998490728633
473,0.96467816435184,0.00457737630929794,0.964689024064808,0.271865151722612
474,0.96234908777054,0.00512675448145605,0.962362743638959,0.305230834970998
475,0.961174267163487,0.00540275355579725,0.961189451462744,0.322055767560526
476,0.985194125873919,-0.00102625612814606,0.985194660388552,-0.0596837943203734
477,0.978136424389247,0.000676150998772311,0.978136658088815,0.0396065327970096
478,0.972229100825553,0.00210231615999249,0.972231373812479,0.123894311872945
479,0.967503453962568,0.00323049823658037,0.96750884727136,0.191310145777186
480,0.963984129650367,0.00407982746711096,0.963992763048529,0.242488949919852
481,0.961624732551355,0.00463311401289113,0.96163589367282,0.276049290272486
482,0.960456465897065,0.00490899405101972,0.960469011007681,0.292842207437311
483,0.977264467154321,0.000982047100891374,0.977264960580767,0.0575761598989106
484,0.971337730427012,0.00244296028211621,0.971340802502417,0.144101288534486
485,0.966624729759878,0.00353678093029136,0.9666312000979,0.20963845620917
486,0.963116685704483,0.00441618547335606,0.963126810433871,0.262716885331758
487,0.960712105256541,0.00494464798410277,0.960724829870729,0.294890589531078
488,0.959570527430981,0.00521602001677776,0.959584703910492,0.311444527335271
489,0.977265912211864,0.000981771212780682,0.977266405360381,0.0575598998319091
490,0.971332851350098,0.00241191513816362,0.971335845856903,0.142270771289069
491,0.966553252154817,0.00354866449010911,0.966559766528028,0.210358388603439
492,0.963097418456713,0.00438724782702939,0.963107411134127,0.261000642946352
493,0.960731794675252,0.00494137218061729,0.960744502174724,0.294689190067914
494,0.959572099899993,0.00521576143459436,0.959586274950733,0.311428577562185
495,0.985194153898314,-0.00102634375467762,0.985194688504215,-0.0596888886993466
496,0.978108938882842,0.000637935865035352,0.978109146918015,0.0373690762151491
497,0.972175262474464,0.00202582594529051,0.972177373187657,0.119393192946129
498,0.967428807470958,0.00313550579037863,0.967433888656606,0.18569905918936
499,0.963857458237387,0.00396812572262207,0.9638656264343,0.235880907555086
500,0.961468519006027,0.00452354642572848,0.961479160206766,0.269564942765466
501,0.96028329365302,0.00480061552488947,0.960295293114836,0.286428722787373
502,0.977238722680071,0.000943546509790777,0.977239178187915,0.0553203784616764
503,0.971296900673121,0.00233247917597275,0.971299701284993,0.137590221487987
504,0.966528507945946,0.00344548130049638,0.966534649153153,0.204247157813609
505,0.962955525894584,0.00427816178208583,0.962965029229591,0.254548621290983
506,0.960582067208368,0.00483086832517494,0.960594214604209,0.288144076803931
507,0.959389050710345,0.0051091419958356,0.959402654757026,0.30512074932241
508,0.977234906778493,0.000944254895178689,0.977235362972338,0.0553621274330195
509,0.971254256580561,0.00233959244541444,0.971257074424,0.138015882785901
510,0.966548369934821,0.00344224098990728,0.966554499470512,0.204050881568735
511,0.962967333616477,0.00427617592645543,0.962976828014559,0.254427345628369
512,0.960530016036122,0.00483948122344403,0.960542207445808,0.288673438917926
513,0.959381087332094,0.00511042015488597,0.95939469829923,0.305199613486759
514,0.985193996980344,-0.00102652976377439,0.985194531780127,-0.0596997158977591
515,0.977984668164429,0.000645778438773749,0.977984881373163,0.0378332860106464
516,0.971933752467314,0.00204126965194735,0.971935896017318,0.120333267208371
517,0.967116814144028,0.00315549718759408,0.967121961989591,0.186943321530855
518,0.963512466539626,0.00399028180600676,0.963520729162671,0.237282866013041
519,0.961138093314517,0.00454486647037946,0.961148838750533,0.270928525448303
520,0.959946797545376,0.0048223701792599,0.959958910251772,0.287827549382694
521,0.977104462998299,0.000953090123472341,0.977104927831181,0.0558876008856519
522,0.971018300469493,0.00235419301636676,0.97102115428626,0.13891093468327
523,0.96618602739234,0.00347060666071352,0.966192260701143,0.205809495399469
524,0.962578443609758,0.00430562854113192,0.962588073133736,0.256283215086811
525,0.960246829923514,0.00485298224976033,0.960259093065447,0.289564125586
526,0.959053177049599,0.00513082759529953,0.959066901629257,0.306523109516271
527,0.977110018101411,0.000952151164506516,0.977110482016225,0.0558322245258474
528,0.970977718576891,0.00236092766433436,0.970980588864793,0.139314138453351
529,0.966209035303692,0.00346674768081053,0.966215254610469,0.205575761694061
530,0.962581050649717,0.00430522941583786,0.962590678362426,0.256258764294837
531,0.960236244569185,0.0048547592742767,0.960248516828817,0.289673347135011
532,0.959034611595502,0.00513388210746966,0.959048352787089,0.306711524275972
533,0.985194012155317,-0.001026511421176,0.985194546935979,-0.0596986482316344
534,0.97799683160093,0.000645127953114939,0.977997044377709,0.0377947068986604
535,0.971980614788143,0.00203839056343638,0.971982752192664,0.120157751389435
536,0.967191932158676,0.00315082927504294,0.967197064386547,0.186652281512925
537,0.963564060828858,0.0040073983311508,0.963572394043324,0.238287931995537
538,0.96115523307291,0.004564106772651,0.961166069487511,0.272070609209905
539,0.959944413519439,0.00484280177630918,0.959956629112078,0.289047725022444
540,0.977096464189141,0.000955909535600573,0.977096931780037,0.056053385228762
541,0.971045441347867,0.00235454940322344,0.971048295948953,0.13892808032034
542,0.966335861942455,0.00342144780337601,0.966341918981651,0.202862904620099
543,0.962660586643746,0.0043176982224082,0.962670269404442,0.256979697662249
544,0.960236209302274,0.00487684047373964,0.960248593452866,0.290990874274628
545,0.959047008340164,0.00515186207246361,0.959060845769982,0.307781695316667
546,0.977107574662911,0.000954031633811249,0.977108040413134,0.0559426312788718
547,0.971054237548172,0.00235310766631971,0.97105708862865,0.138841754566764
548,0.96628609886047,0.00346174859952722,0.966292299749073,0.205262950776714
549,0.962622189762374,0.00435618716040994,0.962632046313379,0.259280783232224
550,0.960258108195529,0.00487319915287275,0.960270473577752,0.290766976962934
551,0.959005884735691,0.00515865913145152,0.959019759296815,0.308200971564234
552,0.975796917554582,-0.00172653171338669,0.975798444977641,-0.101376500953283
553,0.972177560126962,-0.000837540862975803,0.972177920901884,-0.0493608850011705
554,0.969763098218569,-0.000271836168760742,0.969763136318029,-0.0160606902960855
555,0.968557931688493,1.08360738326302e-05,0.968557931749109,0.000641016171323489
556,0.968557931688493,1.08360738323028e-05,0.968557931749109,0.000641016171304125
557,0.974878579621004,-0.00140999519747322,0.974879599278969,-0.0828684918368614
558,0.971222100824304,-0.000483148073693606,0.971222220998694,-0.0285025878174558
559,0.968858378659085,4.18932041168018e-05,0.968858379564811,0.00247745577428866
560,0.967659683935543,0.00032335465232999,0.967659737961886,0.0191460453322645
561,0.974884258445748,-0.00141103271709599,0.97488527959891,-0.082928985967942
562,0.971313360999378,-0.000498714899218645,0.971313489030426,-0.0294181646643486
563,0.968834938901743,4.58454667839602e-05,0.968834939986452,0.00271124796298651
564,0.967629654692702,0.00032851393830919,0.967629710458564,0.0194521337392648
565,0.974746154139539,-0.0017159223063548,0.974747664474854,-0.100862162063265
566,0.96994675332785,-0.000586272296449496,0.969946930510346,-0.0346317197578045
567,0.966349948944825,0.000260393424284876,0.966349984027734,0.0154389658525648
568,0.963965194122044,0.000823786003302925,0.96396554611777,0.0489638526463099
569,0.962799376404688,0.00110369353285117,0.962800009007411,0.0656803017931994
570,0.969058273308394,-0.000274996551676948,0.969058312327256,-0.0162592300203
571,0.965453311708334,0.000572758505813809,0.965453481603798,0.0339909147500336
572,0.96307126070343,0.00113556730384679,0.963071930182786,0.0675580160739972
573,0.961899465201553,0.00141636817875192,0.961900507980868,0.0843662598480114
574,0.969012748936699,-0.000267275139254498,0.969012785796894,-0.015803442293729
575,0.965409468786194,0.000580250042568153,0.965409643163022,0.0344370710802018
576,0.963011348800731,0.00114564857831604,0.963012030262171,0.0681620185036164
577,0.961933425033018,0.00141067747462517,0.961934459413265,0.0840243259094095
578,0.970569811548789,-0.00274673358550128,0.970573698198772,-0.16214786394773
579,0.965738289781259,-0.00156584653686481,0.965739559210975,-0.0928992049476604
580,0.962129645338438,-0.000671404365025192,0.962129879601964,-0.0399827927604629
581,0.959732672011801,-6.22698360460655e-05,0.959732674031911,-0.0037174922720155
582,0.958524012615293,0.000263357901888944,0.958524048794555,0.0157422200188723
583,0.964828555027221,-0.00124933949381443,0.964829363900729,-0.0741912537663222
584,0.961205218823909,-0.000352682674315267,0.961205283526566,-0.0210228028761181
585,0.958831087535342,0.000252421230376306,0.958831120761463,0.0150836482191287
586,0.957591350880285,0.000615455867798274,0.957591548660834,0.0368247048320903
587,0.964794597083069,-0.00124348864341154,0.964795398426365,-0.0738464040993337
588,0.961217864976712,-0.000354805405424222,0.961217930459719,-0.0211490569377415
589,0.958834032940984,0.000251856646759046,0.958834066018538,0.0150498648086927
590,0.957631543026147,0.000608711924377814,0.957631736487908,0.0364196644971779
591,0.967667275610639,-0.00345124454057656,0.967673430128468,-0.204348036545491
592,0.960299762446793,-0.00170800374807025,0.9603012813863,-0.101907036521452
593,0.954115114816255,-0.000229397372459603,0.954115142393197,-0.0137755925002801
594,0.949150920194221,0.000941546743256369,0.94915138719585,0.0568367324519982
595,0.945435426604565,0.00182403812563004,0.945437186170525,0.110541189444552
596,0.942970175113189,0.0024183138263681,0.942973276076667,0.14693876400131
597,0.941716812448746,0.00268550618435002,0.941720641587564,0.16339068294047
598,0.959380830223612,-0.00138886003499342,0.959381835523658,-0.0829449163907976
599,0.953232609203573,0.000115648887531732,0.953232616218998,0.00695128666860939
600,0.948179665247287,0.00126874371131645,0.948180514089518,0.0766665002650786
601,0.944454711251185,0.00215253226561138,0.944457164195239,0.130584133968883
602,0.94202618609302,0.00277325859266773,0.942030268222939,0.168674242999417
603,0.940782483088575,0.003005923693672,0.940787285236975,0.183066923763406
604,0.959423936019634,-0.00142850129791023,0.959424999478003,-0.0853085188362147
605,0.953151324477755,9.69811439513218e-05,0.953151329411569,0.00582972512222106
606,0.948228967081921,0.00126042899599631,0.948229804791276,0.0761601067043824
607,0.944520503449034,0.00214150000524265,0.944522931144549,0.129905810865703
608,0.942084249229548,0.00276359260230381,0.942088302703347,0.168075985073249
609,0.940747321465214,0.00297889562327492,0.940752037820333,0.181427650632504
610,0.966292311125046,-0.00344206260074815,0.966298441649541,-0.204094375413386
611,0.958853166718291,-0.0018952037842831,0.958855039681744,-0.113246783262521
612,0.952634617422457,-0.000616112699550688,0.952634816656671,-0.0370558153369669
613,0.947624116660326,0.000396517916821137,0.947624199618562,0.0239744867293129
614,0.943874940369288,0.00116020455851257,0.943875653426734,0.0704275410356239
615,0.941396251015294,0.0016747306893846,0.941397740675286,0.10192827833512
616,0.940179141618169,0.00194090038546759,0.940181145007803,0.118280908015101
617,0.957917644857711,-0.00160504052503911,0.957918989520946,-0.096001950131811
618,0.951697137784916,-0.000326147876006274,0.95169719367057,-0.0196353391418762
619,0.946661709647852,0.000690369745457276,0.946661961379974,0.0417839501723329
620,0.942904625305894,0.00145508595807782,0.942905748046109,0.0884185057623301
621,0.940446730224119,0.0019659391162315,0.940448785052033,0.119772706358441
622,0.939217605673907,0.00223397394773244,0.939220262477032,0.13628049196878
623,0.957935840640566,-0.00157586774125083,0.957937136842959,-0.0942552573613419
624,0.951738524024849,-0.000300599617907763,0.951738571495938,-0.0180964502559159
625,0.94666744380988,0.000689399321041366,0.94666769483328,0.0417249634710787
626,0.942911982569355,0.00145384701305766,0.942913103389707,0.0883425318959102
627,0.940426202252413,0.00196938440076872,0.940428264333763,0.119985224982575
628,0.939292989102647,0.00225429219195499,0.939295694236204,0.13750893693462
629,0.966292035294736,-0.00344165321286629,0.966298164362782,-0.204070159540308
630,0.958937435439793,-0.00165709603035967,0.958938867214747,-0.0990101238848207
631,0.95277299129446,-0.000178787652955343,0.952773008069193,-0.010751540940762
632,0.947811338118534,0.00101343077261382,0.947811879914984,0.0612624914224502
633,0.944112980147928,0.0019160504023884,0.944114924430784,0.116279992944499
634,0.941644569478238,0.0025108835061515,0.941647917092072,0.152778119741947
635,0.940386047976154,0.00282021238292416,0.940390276867054,0.171829200133947
636,0.958029584392563,-0.00130731519396992,0.958030476365133,-0.0781850559058464
637,0.951849439820323,0.000140865303447747,0.951849450243733,0.00847926885368249
638,0.946871172983593,0.00133553804811189,0.94687211485459,0.0808142068054143
639,0.943139288656097,0.002243427253743,0.943141956850914,0.1362881097218
640,0.940729367087506,0.00282827082871051,0.940733618627898,0.172257292304616
641,0.939435772938328,0.00317630888060268,0.939441142602526,0.193720960020187
642,0.958045811888035,-0.00134245510549082,0.958046752440566,-0.0802852644772401
643,0.951874248861519,0.000136683342525962,0.951874258674966,0.00822732478793249
644,0.946835815181664,0.00134149813752905,0.946836765513454,0.0811778862206563
645,0.943225652877772,0.00226179816699901,0.943228364701596,0.137391556618836
646,0.940726363332026,0.00282883805035957,0.940730616591495,0.172292389150713
647,0.939431179218672,0.00314417105709592,0.939436440798323,0.191761847996053
648,0.964134689965323,-0.00410987866481628,0.964143449646975,-0.244236907938691
649,0.958139755012588,-0.00263297934453116,0.958143372734901,-0.157449081367871
650,0.953335080703196,-0.00144326003597778,0.953336173182839,-0.0867403783837489
651,0.949729026098408,-0.000540846356553812,0.94972918009747,-0.0326284754852947
652,0.947351787430185,7.25498778306663e-05,0.947351790208184,0.00438781226880519
653,0.946162019909569,0.000379291509096594,0.94616209593357,0.0229683722819073
654,0.957241729142815,-0.00231613515766042,0.957244531190643,-0.138632182766761
655,0.952426527767045,-0.00112494151210283,0.952427192119059,-0.0676738509382253
656,0.948771052677644,-0.000214373697572397,0.948771076896385,-0.0129459134169674
657,0.9464673181287,0.000419020704296299,0.946467410883272,0.0253660278135132
658,0.945279194763978,0.000725424645996143,0.945279473116047,0.0439698267360405
659,0.957235117207072,-0.00231499448056501,0.95723791651495,-0.138564864950843
660,0.95242800998437,-0.00112522784572239,0.952428674673591,-0.0676909707389958
661,0.948824758850679,-0.000223517779530496,0.948824785178089,-0.0134973556042589
662,0.946441015516356,0.000390706134012661,0.946441096161253,0.0236526216321499
663,0.945246051907735,0.000698285248489103,0.945246309831173,0.0423263236867849
664,0.96413443171675,-0.00411006000657929,0.964143192173775,-0.244247749789775
665,0.957986533644907,-0.00258205857337387,0.957990013346413,-0.154428789205416
666,0.953011576999934,-0.00136055215230196,0.953012548184996,-0.0817973727239333
667,0.949245260355223,-0.000427015729645495,0.949245356401225,-0.0257743688231644
668,0.946741400129375,0.000194676732565609,0.946741420144888,0.0117816279996543
669,0.945472869026042,0.000527279441483337,0.945473016054898,0.0319531997994858
670,0.957100728045297,-0.00226731397478071,0.957103413606648,-0.135729996615729
671,0.952101953758584,-0.00104211092176071,0.952102524072952,-0.0627123319323503
672,0.948267671347905,-6.45963884512692e-05,0.948267673548071,-0.00390301234150437
673,0.945766778515579,0.000490968227005863,0.945766905951745,0.0297434900385039
674,0.944529001991084,0.000883730451644253,0.94452941541372,0.0536076819500327
675,0.957099634204001,-0.00223473044913574,0.957102243134772,-0.133779583470688
676,0.952090122465482,-0.00104002092989752,0.95209069050163,-0.0625873378802048
677,0.948311994285582,-0.00010485009668126,0.948312000081956,-0.006334906690093
678,0.945843678964171,0.000543332626298411,0.945843835020782,0.0329131162229089
679,0.944499742861572,0.000888612270395946,0.944500160877352,0.0539054860308826
680,0.963683767563422,-0.0042991141036368,0.963693356959208,-0.255601959926461
681,0.956239562628228,-0.00268131343056694,0.95624332184708,-0.160658005059565
682,0.950027440788287,-0.00131308469595106,0.95002834823081,-0.0791915686676647
683,0.945048452059462,-0.000214383554177876,0.945048476375838,-0.0129975056981863
684,0.941322888138866,0.000634623823612198,0.941323102065116,0.0386278307057005
685,0.938872724664861,0.00123296302910981,0.938873534251259,0.0752429327185311
686,0.937670397801135,0.00154103406795537,0.937671664122649,0.0941638649276878
687,0.955306138244975,-0.00239034383579134,0.955309128770463,-0.143363809852105
688,0.949096199066065,-0.00099047839446005,0.949096715898386,-0.0597939504499137
689,0.944086800608091,8.03489004001423e-05,0.944086804027239,0.00487630254693184
690,0.940362608425526,0.000928730985902071,0.940363067047034,0.0565870527146417
691,0.937944345947227,0.00158739546191276,0.937945689215919,0.0969684117638694
692,0.93677365473017,0.0018901122885476,0.936775561551957,0.115604564063656
693,0.955299412693922,-0.00238921567185384,0.955302400418255,-0.143297155952538
694,0.949086644744847,-0.00102147022469699,0.949087194431814,-0.0616655080962965
695,0.944103409175929,7.75270961476901e-05,0.944103412359082,0.00470496701315844
696,0.940342504504143,0.000932160775767828,0.940342966529146,0.0567972419930157
697,0.937909526047217,0.00152729181878059,0.937910769567348,0.0933003616271333
698,0.93674905667774,0.00186113938789473,0.936750905538104,0.113835494085799
699,0.963683828001643,-0.0042992889086207,0.963693418176663,-0.255612336712157
700,0.956186112925926,-0.0027594116560984,0.956190094544532,-0.165346683870594
701,0.949885272570425,-0.00148725842315639,0.949886436888014,-0.0897093191350673
702,0.944813247713119,-0.000484638300578514,0.944813372009781,-0.0293896458854652
703,0.940993087859937,0.000268008525883314,0.940993126026301,0.0163186714010231
704,0.938446182726846,0.000769567525311854,0.938446498266558,0.0469850718970423
705,0.937160213727054,0.00102106360408143,0.937160769966296,0.0624254114956977
706,0.955307114407724,-0.00244539147287941,0.955310244254435,-0.146665195426482
707,0.948955105179511,-0.00116456545865251,0.948955819761365,-0.0703138134635298
708,0.943863479092025,-0.000191638992240417,0.943863498546906,-0.0116331498546779
709,0.940021677704503,0.000564440177615831,0.940021847164789,0.0344035003078761
710,0.937492019721541,0.0010629303985632,0.937492622297694,0.0649620459441706
711,0.936184803173144,0.00131785170072415,0.936185730731591,0.0806542579470917
712,0.955249089581307,-0.00246776542654005,0.955252277156205,-0.148016083731088
713,0.948950107512295,-0.0011964071367091,0.948950861708673,-0.0722367199810102
714,0.943858788475289,-0.000190807869916299,0.943858807761883,-0.0115827554170657
715,0.940027233201932,0.000563532192132462,0.940027402116455,0.0343479542087876
716,0.937482046765984,0.0010646140176387,0.937482651258969,0.0650656340678111
717,0.936178681775323,0.00131888336136594,0.936179610792663,0.0807179246388759
718,0.963550733547162,-0.00437436163814336,0.963560662936702,-0.260111615684671
719,0.958702737794127,-0.00327951893289919,0.958708347047415,-0.195995957196852
720,0.955075403036758,-0.00245424516760904,0.955078556352915,-0.14723191491979
721,0.952649931542164,-0.00191741112173651,0.952651861139577,-0.115319817786477
722,0.95142815711104,-0.00164843106697853,0.95142958513423,-0.0992697638217459
723,0.957768236852413,-0.00298815382954778,0.95777289823146,-0.178757282688818
724,0.954142780444909,-0.00216355116959678,0.954145233404646,-0.129919903876275
725,0.95176948774994,-0.00160329102796785,0.951770838150604,-0.0965167758845086
726,0.950515412806827,-0.00132882530303263,0.950516341658585,-0.0800997342574576
727,0.957784574526165,-0.00295857625724095,0.957789144004951,-0.176984886020962
728,0.954187545475469,-0.00210631191430143,0.954189870251399,-0.126476799639349
729,0.951703780710117,-0.00162457833036426,0.951705167303763,-0.0978050032945152
730,0.950486414959055,-0.00135646636486235,0.950487382884547,-0.0817683911848529
